Version 4
SHEET 1 1668 924
WIRE -208 -16 -208 -64
WIRE 128 32 -32 32
WIRE 288 32 128 32
WIRE 352 32 352 -64
WIRE 352 32 288 32
WIRE 528 32 352 32
WIRE 672 32 528 32
WIRE 736 32 672 32
WIRE 1024 32 736 32
WIRE 128 48 128 32
WIRE 288 48 288 32
WIRE 528 48 528 32
WIRE 672 48 672 32
WIRE -32 64 -32 32
WIRE -208 80 -208 64
WIRE 672 128 672 112
WIRE 736 128 736 112
WIRE 736 128 672 128
WIRE 800 128 736 128
WIRE 880 128 800 128
WIRE 928 128 880 128
WIRE 288 144 288 128
WIRE 336 144 288 144
WIRE 448 144 400 144
WIRE 528 144 528 128
WIRE 592 144 528 144
WIRE 672 144 672 128
WIRE 800 160 800 128
WIRE 880 160 880 128
WIRE -32 192 -32 144
WIRE -32 192 -64 192
WIRE 0 192 -32 192
WIRE 128 192 128 128
WIRE 128 192 64 192
WIRE 224 192 128 192
WIRE 592 192 592 144
WIRE 608 192 592 192
WIRE 1024 192 1024 32
WIRE 528 208 528 144
WIRE 592 208 528 208
WIRE 528 224 528 208
WIRE -32 240 -32 192
WIRE 592 240 592 208
WIRE 128 256 128 192
WIRE 288 256 288 240
WIRE 384 256 288 256
WIRE 672 256 672 240
WIRE 800 256 800 224
WIRE 800 256 672 256
WIRE 880 256 880 224
WIRE 384 288 384 256
WIRE 800 288 800 256
WIRE -32 384 -32 320
WIRE 128 384 128 336
WIRE 288 384 288 336
WIRE 384 384 384 352
WIRE 528 384 528 288
WIRE 592 384 592 320
WIRE 672 384 672 336
WIRE 800 384 800 352
WIRE 880 384 880 336
WIRE 1024 384 1024 256
FLAG 128 384 0
FLAG 288 384 0
FLAG -32 384 0
FLAG 672 384 0
FLAG 928 128 Vout
IOPIN 928 128 Out
FLAG -208 80 0
FLAG 352 -64 VCC
FLAG -208 -64 VCC
FLAG -64 192 Vin
IOPIN -64 192 In
FLAG 528 384 0
FLAG 800 384 0
FLAG 880 384 0
FLAG 384 384 0
FLAG 592 384 0
FLAG 1024 384 0
SYMBOL res 112 32 R0
SYMATTR InstName R2
SYMATTR Value 15k
SYMBOL res 272 240 R0
SYMATTR InstName R3
SYMATTR Value 4.7k
SYMBOL res 272 32 R0
SYMATTR InstName R4
SYMATTR Value 10k
SYMBOL res 512 32 R0
SYMATTR InstName R5
SYMATTR Value 4.7k
SYMBOL res 112 240 R0
SYMATTR InstName R6
SYMATTR Value 6.8k
SYMBOL cap 64 176 R90
WINDOW 0 0 32 VBottom 2
WINDOW 3 32 32 VTop 2
SYMATTR InstName C1
SYMATTR Value 10µ
SYMBOL cap 400 128 R90
WINDOW 0 0 32 VBottom 2
WINDOW 3 32 32 VTop 2
SYMATTR InstName C2
SYMATTR Value 2.2µ
SYMBOL voltage -32 224 R0
WINDOW 3 -86 110 Left 2
WINDOW 123 24 44 Left 2
WINDOW 39 0 0 Left 0
SYMATTR Value SINE(0 1 10Meg)
SYMATTR Value2 AC 1
SYMATTR InstName V1
SYMBOL cap 864 160 R0
SYMATTR InstName C3
SYMATTR Value 2p
SYMBOL cap 512 224 R0
SYMATTR InstName C4
SYMATTR Value .1µ
SYMBOL cap 656 48 R0
SYMATTR InstName C5
SYMATTR Value 20p
SYMBOL ind 720 16 R0
SYMATTR InstName L1
SYMATTR Value 100n
SYMBOL res 656 240 R0
SYMATTR InstName R7
SYMATTR Value 220
SYMBOL voltage -208 -32 R0
WINDOW 123 0 0 Left 0
WINDOW 39 0 0 Left 0
SYMATTR InstName V2
SYMATTR Value 9
SYMBOL cap 784 288 R0
SYMATTR InstName C7
SYMATTR Value 2p
SYMBOL res 864 240 R0
SYMATTR InstName R1
SYMATTR Value 50
SYMBOL cap 784 160 R0
SYMATTR InstName C6
SYMATTR Value 4p7
SYMBOL cap 368 288 R0
SYMATTR InstName C8
SYMATTR Value 10µ
SYMBOL res 576 224 R0
SYMATTR InstName R8
SYMATTR Value 2.2k
SYMBOL res 544 128 R90
WINDOW 0 0 56 VBottom 2
WINDOW 3 32 56 VTop 2
SYMATTR InstName R9
SYMATTR Value 1k
SYMBOL res -48 48 R0
SYMATTR InstName R10
SYMATTR Value 1k
SYMBOL cap 1008 192 R0
SYMATTR InstName C9
SYMATTR Value .1µ
SYMBOL AutoGenerated\\BFQ19S 224 144 R0
SYMATTR InstName U1
SYMBOL AutoGenerated\\BFQ19S 608 144 R0
SYMATTR InstName U2
TEXT 96 448 Left 2 !.tran 50u
TEXT 1152 -240 Left 2 !.MODEL          M_BFQ19S        NPN(\n+               TNOM            =               25\n+               IS              =               1.734E-015\n+               BF              =               126.2\n+               NF              =               0.9968\n+               VAF             =               52.15\n+               IKF             =               1.035\n+               ISE             =               7.715E-015\n+               NE              =               1.81\n+               BR              =               13.1\n+               NR              =               0.9968\n+               VAR             =               3.079\n+               IKR             =               0.1214\n+               ISC             =               6.257E-015\n+               NC              =               1.6\n+               RB              =               5.552\n+               IRB             =               2.4E-005\n+               RBM             =               1.524\n+               RE              =               0.2261\n+               RC              =               1.814\n+               XTB             =               0.854\n+               EG              =               1.11\n+               XTI             =               9.516\n+               CJE             =               4.551E-012\n+               VJE             =               0.7397\n+               MJE             =               0.3271\n+               TF              =               2.467E-011\n+               XTF             =               4.69\n+               VTF             =               6.79\n+               ITF             =               1.027\n+               PTF             =               9.546E-017\n+               CJC             =               1.164E-012\n+               VJC             =               0.6791\n+               MJC             =               0.3983\n+               XCJC            =               0.007944\n+               TR              =               3.412E-008\n+               CJS             =               0\n+               VJS             =               0.3601\n+               MJS             =               0.02997\n+               FC              =               0.567\n+               KF              =               2.2E-14\n+               AF              =               1.6)
TEXT 248 -168 Left 2 !;ac oct 1 1k 800Meg
